32
This molecule's SMILES string is N#Cc1ccc(C(=O)O)c(C#N)c1/N=N/c1cc(C(=O)O)ccc1F
N 1.601381650671653 2.616205989141319 -2.628986389427592 
C 1.898407696015337 2.4531764731144605 -1.5194672081043037 
C 2.270673792451321 2.301025410166633 -0.14238464170874154 
C 2.9785104301880656 3.3401895707364377 0.4747529128888138 
C 3.3985191323786315 3.21116600991566 1.7965691402244253 
C 3.1391254203264625 2.0292382691634727 2.5050202160066606 
C 3.5920077893778313 1.927216872932715 3.9093560684172557 
O 2.995595841136497 1.3913801147561917 4.819312116634085 
O 4.789119232365494 2.5109135257954884 4.083107774892785 
C 2.437841687705528 0.9768572905691937 1.8928422081812781 
C 2.2804427662202302 -0.28840528058173787 2.557753097749872 
N 2.2008025016032717 -1.3298271978392933 3.0635854008341483 
C 1.9528415534854737 1.1283000175736735 0.5729600639363179 
N 1.256049929817431 0.06884858466030908 -0.05322639571622467 
N 0.0 0.0 0.0 
C -0.7072545917186046 -1.050288936392091 -0.6194919316114819 
C -1.0190410382141928 -0.959849510437132 -1.98288387874931 
C -1.6883870789098563 -2.0061292692407515 -2.6345763588343196 
C -2.0510968161794354 -1.9328219486203042 -4.070501615525102 
O -2.6922683718911484 -2.766228263051919 -4.681932426424763 
O -1.5922230339276413 -0.8184151133265137 -4.660614490824489 
C -2.0321285859002884 -3.1628325490395097 -1.9227672257495658 
C -1.693125447702151 -3.278469798572122 -0.575326887833335 
C -1.0259054845241007 -2.2330774604528116 0.05848964507574918 
F -0.7033295284869091 -2.376286896389849 1.3504624144196558 
H 3.2129597289442233 4.252859377162899 -0.07355750891595991 
H 3.941419694816046 4.030213963602993 2.267423923357627 
H 4.999784041689422 2.3554967088121983 5.02989259941416 
H -0.7290949766263385 -0.06538119868784825 -2.532307860257473 
H -1.8959105063605788 -0.8824836912737569 -5.590592871297292 
H -2.5491518680467484 -3.982118810040402 -2.4207305122344884 
H -1.934135295843541 -4.178651841427124 -0.016807769034518465