   47
Geometry Step: 0
    C     -0.53762014      1.21134560     -2.79938634      4.24378066
    C     -1.35680401      1.66115838     -1.61914872      3.99073860
    C     -1.30826345      2.99756960     -1.20040154      4.10678066
    C     -2.07591800      3.44215572     -0.12742594      4.12077960
    C     -2.94639574      2.57371309      0.55475005      3.98398666
    C     -3.79726072      3.13300412      1.64562479      3.94897515
    C     -3.23809808      4.00159737      2.59949008      4.10766733
    C     -4.02688779      4.55944289      3.60539905      4.07557100
    C     -5.39140841      4.27180395      3.66850181      4.08437639
    C     -5.96186673      3.42205470      2.71847668      4.07397064
    C     -5.17413919      2.85592877      1.71703821      4.09403089
    C     -3.01899056      1.21928106      0.14984958      4.03769407
    C     -3.85357863      0.22189071      0.89564654      3.94731903
    C     -4.76373218     -0.61233680      0.22445657      4.09965896
    C     -5.51605815     -1.55306845      0.92768011      4.07391720
    C     -5.36797755     -1.68354935      2.30980281      4.08476379
    C     -4.46490221     -0.86235228      2.98720288      4.07407330
    C     -3.71500823      0.08324695      2.28796995      4.10297502
    C     -2.19193179      0.76987812     -0.90885353      3.89205510
    N     -2.35879893     -0.58483799     -1.39630565      5.07725590
    N     -1.43253167     -1.43619418     -1.32513418      5.06588125
    C     -0.21757067     -1.15759525     -0.59184243      3.95079022
    C     -0.23049637     -0.76256164      0.75711866      4.10478651
    C      0.96491603     -0.67167752      1.47509378      4.10733439
    C      2.18621137     -0.97314457      0.86724394      4.08240105
    C      2.22363656     -1.39064744     -0.46754360      4.18470010
    C      1.02251592     -1.50253688     -1.16830749      3.63315246
    F      1.05017713     -1.90622169     -2.45117740      7.26164128
    H     -1.02784412      0.40757456     -3.34412960      0.90545687
    H     -0.36251802      2.03892063     -3.48417108      0.91859602
    H      0.44119017      0.83930349     -2.48724134      0.91168407
    H     -0.66716013      3.69775904     -1.73073933      0.91561977
    H     -2.02955469      4.48763750      0.16706712      0.91466709
    H     -2.17438341      4.22738231      2.56187744      0.92270168
    H     -3.57545350      5.22138945      4.34080938      0.92372208
    H     -6.00660151      4.70972034      4.45069462      0.92287143
    H     -7.02612714      3.20106318      2.75696896      0.92278113
    H     -5.63274811      2.20672612      0.97547100      0.91581835
    H     -4.89543827     -0.51431583     -0.85018291      0.91677318
    H     -6.22005707     -2.18748350      0.39410297      0.92261312
    H     -5.95225414     -2.42056639      2.85545730      0.92245313
    H     -4.34373571     -0.95842177      4.06375830      0.92277950
    H     -3.01222460      0.71711760      2.82415630      0.91948216
    H     -1.17793650     -0.55134813      1.24506983      0.89820385
    H      0.94187838     -0.36644589      2.51736751      0.91028840
    H      3.10993425     -0.89327210      1.43289680      0.90978783
    H      3.16170952     -1.64423399     -0.95112530      0.89264314
   47
Geometry Step: 1
    C     -0.53778148      1.21120254     -2.79945581      4.24379474
    C     -1.35692530      1.66088881     -1.61897525      3.99069290
    C     -1.30838326      2.99755195     -1.20030686      4.10682481
    C     -2.07595924      3.44232924     -0.12735586      4.12073773
    C     -2.94631111      2.57382416      0.55472249      3.98410454
    C     -3.79726344      3.13315130      1.64591598      3.94893720
    C     -3.23821221      4.00158980      2.59941780      4.10751624
    C     -4.02679520      4.55939419      3.60531474      4.07555882
    C     -5.39142325      4.27181912      3.66854920      4.08444228
    C     -5.96180522      3.42197206      2.71847028      4.07400278
    C     -5.17393388      2.85605957      1.71712816      4.09391269
    C     -3.01878387      1.21920340      0.14968190      4.03770833
    C     -3.85351130      0.22184677      0.89573823      3.94733596
    C     -4.76376526     -0.61241533      0.22464264      4.09955585
    C     -5.51627759     -1.55318096      0.92762314      4.07397979
    C     -5.36797831     -1.68378882      2.30980200      4.08484325
    C     -4.46496246     -0.86239480      2.98721406      4.07410429
    C     -3.71499185      0.08325916      2.28802828      4.10295198
    C     -2.19174661      0.77004087     -0.90897735      3.89192405
    N     -2.35894277     -0.58482694     -1.39647601      5.07740497
    N     -1.43234859     -1.43616376     -1.32522365      5.06593950
    C     -0.21765052     -1.15764424     -0.59168648      3.95068885
    C     -0.23036119     -0.76253311      0.75701377      4.10471003
    C      0.96475275     -0.67177424      1.47509821      4.10733283
    C      2.18598471     -0.97308740      0.86713615      4.08231225
    C      2.22346166     -1.39053864     -0.46748819      4.18460141
    C      1.02244030     -1.50247652     -1.16830916      3.63320087
    F      1.05024250     -1.90623214     -2.45116320      7.26162366
    H     -1.02778294      0.40763267     -3.34411200      0.90537512
    H     -0.36253347      2.03885025     -3.48425782      0.91861483
    H      0.44132566      0.83931732     -2.48715147      0.91175506
    H     -0.66714217      3.69777845     -1.73077658      0.91565447
    H     -2.02955420      4.48753823      0.16701691      0.91459026
    H     -2.17439201      4.22756862      2.56190441      0.92276949
    H     -3.57542561      5.22155816      4.34089699      0.92377442
    H     -6.00668415      4.70968887      4.45072981      0.92284324
    H     -7.02607383      3.20108472      2.75693271      0.92276748
    H     -5.63275162      2.20661789      0.97536382      0.91590868
    H     -4.89548423     -0.51436762     -0.85029696      0.91686153
    H     -6.22017777     -2.18749865      0.39415034      0.92254118
    H     -5.95222726     -2.42039380      2.85533003      0.92236842
    H     -4.34366076     -0.95841205      4.06372553      0.92277454
    H     -3.01220156      0.71713692      2.82410922      0.91947152
    H     -1.17791005     -0.55138269      1.24508070      0.89828086
    H      0.94185197     -0.36645041      2.51737488      0.91028286
    H      3.11004954     -0.89327483      1.43306814      0.90990029
    H      3.16189968     -1.64421447     -0.95124125      0.89272315
   47
Geometry Step: 2
    C     -0.53766972      1.21130165     -2.79940768      4.24378508
    C     -1.35684128      1.66107555     -1.61909542      3.99072254
    C     -1.30830026      2.99756417     -1.20037245      4.10679702
    C     -2.07593067      3.44220903     -0.12740441      4.12076791
    C     -2.94636974      2.57374722      0.55474158      3.98402896
    C     -3.79726156      3.13304934      1.64571426      3.94896483
    C     -3.23813315      4.00159504      2.59946787      4.10761997
    C     -4.02685934      4.55942792      3.60537314      4.07556794
    C     -5.39141297      4.27180861      3.66851637      4.08439532
    C     -5.96184783      3.42202931      2.71847471      4.07397825
    C     -5.17407610      2.85596896      1.71706585      4.09399380
    C     -3.01892705      1.21925719      0.14979806      4.03769820
    C     -3.85355794      0.22187721      0.89567471      3.94732231
    C     -4.76374234     -0.61236093      0.22451374      4.09962669
    C     -5.51612558     -1.55310302      0.92766260      4.07393600
    C     -5.36797778     -1.68362293      2.30980256      4.08479018
    C     -4.46492072     -0.86236534      2.98720632      4.07408528
    C     -3.71500319      0.08325070      2.28798787      4.10296790
    C     -2.19187489      0.76992812     -0.90889157      3.89200795
    N     -2.35884312     -0.58483460     -1.39635799      5.07729881
    N     -1.43247542     -1.43618483     -1.32516167      5.06590308
    C     -0.21759520     -1.15761030     -0.59179451      3.95075759
    C     -0.23045483     -0.76255288      0.75708643      4.10476355
    C      0.96486586     -0.67170723      1.47509514      4.10733273
    C      2.18614173     -0.97312701      0.86721082      4.08237428
    C      2.22358282     -1.39061401     -0.46752657      4.18466876
    C      1.02249269     -1.50251833     -1.16830800      3.63316563
    F      1.05019721     -1.90622491     -2.45117304      7.26163696
    H     -1.02782532      0.40759241     -3.34412419      0.90543091
    H     -0.36252276      2.03889900     -3.48419773      0.91860258
    H      0.44123180      0.83930774     -2.48721373      0.91170618
    H     -0.66715461      3.69776500     -1.73075078      0.91563092
    H     -2.02955454      4.48760700      0.16705169      0.91464277
    H     -2.17438605      4.22743956      2.56188573      0.92272259
    H     -3.57544493      5.22144129      4.34083630      0.92373896
    H     -6.00662690      4.70971067      4.45070543      0.92286336
    H     -7.02611076      3.20106980      2.75695782      0.92277727
    H     -5.63274919      2.20669287      0.97543807      0.91584628
    H     -4.89545239     -0.51433174     -0.85021795      0.91679951
    H     -6.22009416     -2.18748815      0.39411753      0.92259070
    H     -5.95224588     -2.42051336      2.85541819      0.92242723
    H     -4.34371268     -0.95841879      4.06374823      0.92277812
    H     -3.01221752      0.71712354      2.82414183      0.91947850
    H     -1.17792837     -0.55135875      1.24507317      0.89822811
    H      0.94187027     -0.36644728      2.51736978      0.91028741
    H      3.10996968     -0.89327294      1.43294945      0.90982326
    H      3.16176795     -1.64422800     -0.95116092      0.89266783
