35
This molecule's SMILES string is COc1cc(C#N)c(\N=N/c2ccccc2C(=O)O)c(C(=O)O)c1
C 6.155024891520803 -1.6595994842948572 3.3373811885141595 
O 5.7973940202967595 -0.5241271545574768 2.5573367904755737 
C 4.642222434961685 -0.6000574232795772 1.8337820963379277 
C 3.8045192584336975 -1.705565025710169 1.7389481165197218 
C 2.63767282842116 -1.6503048677513 0.9536178980989156 
C 1.856522390819266 -2.849308786544265 0.8429450090742044 
N 1.2712583791269307 -3.851840243802326 0.812918399457607 
C 2.2686508620573775 -0.46976011543434343 0.27994111986009673 
N 1.0816098184227463 -0.4282803148301045 -0.48604121400569156 
N 0.0 0.0 0.0 
C -0.0806985927902573 0.4591467683291769 1.3315566327180353 
C 0.22947652362434828 1.7975084494122098 1.6185440483310902 
C 0.18439829237311586 2.2867989315911488 2.9267289431180274 
C -0.20395719823660322 1.450538346223807 3.970112929488181 
C -0.5754502889189896 0.13452011480942283 3.7005868816531393 
C -0.534427296474378 -0.35045115677822813 2.383728148658712 
C -1.0216457354579034 -1.7122025356883042 2.109271331707481 
O -1.755783459109526 -2.057998623094013 1.2070056848486481 
O -0.4932932964057785 -2.587782169915512 2.9844709458171783 
C 3.1640343037360674 0.615716204849836 0.3273132538110879 
C 2.9292482715355748 1.8246381572788497 -0.496917151664622 
O 2.3416145412029556 1.894462505309542 -1.5568851271606934 
O 3.450515641997147 2.9269812592859306 0.07479730640308291 
C 4.3266002108788175 0.5508249581867293 1.115209973086223 
H 6.352388944652773 -2.527424486623693 2.6996370012032953 
H 5.385953790768975 -1.8837623631731195 4.0839423898371905 
H 7.079594644844132 -1.420575772335786 3.8715257396349836 
H 4.039447667679264 -2.633598463638645 2.254900141457416 
H 0.5044323919770679 2.4686359107665465 0.8078886594603355 
H 0.44396697436031113 3.323974828778275 3.127035061960954 
H -0.24367578900650566 1.83068745970844 4.988417864902894 
H -0.9175982397216841 -0.5061231877438741 4.510659232117457 
H -0.7462225320653396 -3.462095839091072 2.6092934445993534 
H 3.2447132393204043 3.641761761508062 -0.565411376827321 
H 5.00922804106599 1.3984167926607523 1.1579761337322632