   36
Geometry Step: 0
    C     -5.33092913      2.84144282     -1.32572427      3.95528233
    O     -4.40236190      1.92771864     -1.88209618      6.26871966
    C     -3.85559915      0.97309633     -1.09847598      3.67896109
    C     -4.16923092      0.81881524      0.26487967      4.24449290
    C     -3.55139580     -0.19766798      0.99545155      4.09108321
    C     -2.57429973     -1.02145401      0.41939216      3.99231415
    N     -2.05152176     -2.10366614      1.22039678      5.05559545
    N     -0.80706161     -2.34409862      1.25250269      5.12654730
    C      0.16558806     -1.43248292      0.71620470      3.83831470
    C      0.21063831     -0.12504032      1.23721976      4.23203958
    C      1.26168960      0.71857821      0.86970095      3.57362720
    F      1.29398253      1.95976136      1.36637707      7.25433022
    C      2.27570075      0.30509124     -0.00411951      4.20406132
    C      2.22312686     -0.99273940     -0.50527181      4.05216366
    C      1.19684004     -1.88931348     -0.14884324      4.16744680
    C      1.24197903     -3.24833092     -0.80341239      3.32228226
    O      2.08034796     -3.51623129     -1.65691828      6.54576849
    O      0.32200717     -4.17342776     -0.42635203      6.48938212
    C     -2.29196382     -0.91814314     -0.97738606      3.71188368
    O     -1.44953042     -1.85502305     -1.46807496      6.28902219
    C     -1.16814527     -1.98500589     -2.85689000      3.96678253
    C     -2.93258866      0.09403066     -1.73930954      4.13532622
    C     -2.70495370      0.32833821     -3.14322189      3.81236129
    N     -2.57245243      0.58829069     -4.26192929      5.31414902
    H     -6.22232029      2.32084663     -0.94494818      0.94765083
    H     -5.63020014      3.52650938     -2.12253847      0.92942388
    H     -4.87831440      3.41816080     -0.50549139      0.94728652
    H     -4.88739051      1.46769459      0.75274478      0.89646549
    H     -3.78591954     -0.31969744      2.04909722      0.89870363
    H     -0.55421160      0.21488023      1.92843044      0.88227078
    H      3.07798017      0.98267801     -0.27701319      0.88369443
    H      2.98887013     -1.35120137     -1.18856747      0.87714875
    H     -0.28969031     -3.84032332      0.25657741      0.63654184
    H     -0.61888439     -1.11170725     -3.22936868      0.92836582
    H     -2.09254394     -2.11904150     -3.43211855      0.93181189
    H     -0.54199288     -2.87375013     -2.96831123      0.91869878
