47
This molecule's SMILES string is Cc1ccc(-c2ccccc2)c(-c2ccccc2)c1/N=N/c1ccccc1F
C -0.32396524946072836 2.2070416967219195 -2.5352186057850075 
C -1.2930440211743541 2.5058370275490662 -1.4208942480846396 
C -1.8652142541945798 3.78088872804191 -1.3850095049632847 
C -2.8469491182779594 4.085795648757454 -0.44962272974691375 
C -3.315120631297788 3.1218484605899444 0.46156248036130487 
C -4.416947111745158 3.5192976187204232 1.361351975549883 
C -4.20673045887551 4.4715403872474635 2.3731459700482507 
C -5.247065314468195 4.858654452961035 3.2211045785038994 
C -6.514789994205883 4.30244646430183 3.0670425335327964 
C -6.74379020448702 3.3620443602525265 2.0652047588653453 
C -5.703498713632537 2.976393978804314 1.2165531972211998 
C -2.7426448551313567 1.8155207966785394 0.4500472159511397 
C -3.249901009909353 0.7550238998221939 1.3603062977625926 
C -3.8174632165812064 -0.4238889276579374 0.8465346436151924 
C -4.308243442373238 -1.419755949656686 1.695190971297825 
C -4.246633021068302 -1.252267187749105 3.0758798657065607 
C -3.694181395900727 -0.09091200273665923 3.608280565095455 
C -3.2002411462010922 0.9016978182469151 2.7577773287672027 
C -1.6920159117028855 1.5293052266234386 -0.4764444032613133 
N -1.1145850152585821 0.23484688872578285 -0.5392849162628173 
N 0.0 0.0 0.0 
C 0.5709850066806688 -1.2866993939464284 -0.06409153670058429 
C 0.3115122249122631 -2.2106556627356 0.9560419060470199 
C 0.8255851611064843 -3.5095357195647243 0.898968267860839 
C 1.5847130596250072 -3.910726922635113 -0.1989965411838814 
C 1.8128974251062118 -3.0183246205088476 -1.2446488632798542 
C 1.2952470951491317 -1.7249876748508797 -1.177773992430454 
F 1.4960521581053645 -0.9086088653199446 -2.223074493129635 
H 0.25384310297454915 1.2945403283440626 -2.371897502825209 
H -0.8722208220307388 2.0926563668514993 -3.4761705797370333 
H 0.39447968298559033 3.0270356072237266 -2.6424953316259607 
H -1.5631286015933432 4.539146319251516 -2.1046709022267325 
H -3.286458685994906 5.08261688338223 -0.45833986069939336 
H -3.2212423638207337 4.912059460481062 2.509385525056658 
H -5.066547299522394 5.592892609286105 4.001606628284161 
H -7.324645657935476 4.600998878400485 3.727369234942279 
H -7.731269039857822 2.9250393062224607 1.9430389369038827 
H -5.900126676570663 2.240624512568098 0.4394056488777126 
H -3.880375904767714 -0.5740970788119815 -0.22961250778686026 
H -4.739038090903135 -2.324445779660224 1.274532329987264 
H -4.631361815677545 -2.025176508772788 3.735650359690859 
H -3.649435336731975 0.04740013102073326 4.6850332434022945 
H -2.7710265619017553 1.8002936499299076 3.195850565287681 
H -0.30084720752605193 -1.9084588397137698 1.8028421473577771 
H 0.624110942799523 -4.206522797254513 1.7088791211039145 
H 1.9826243340340777 -4.921278257443487 -0.24764985450300303 
H 2.3805911880622075 -3.321291742636714 -2.1187632871220194