   43
Geometry Step: 0
    C     -4.14821180     -1.51680723     -0.06191125      4.24389718
    C     -2.97265124     -1.26624165      0.84021401      3.98418570
    C     -2.31194194     -2.31733327      1.47927678      4.08236779
    C     -1.19778827     -2.08483222      2.30630176      4.08229708
    C     -0.54480028     -3.23436307      2.97790115      3.32076105
    O     -0.90841268     -4.40522765      2.88392282      6.57386186
    O      0.53844233     -2.92656721      3.75543939      6.51631180
    C     -0.73764216     -0.76833976      2.49006044      4.07889316
    C     -1.37016018      0.29010179      1.84572352      4.12276965
    C     -2.47320310      0.04868381      1.00464730      3.86124558
    N     -3.23289993      1.15019103      0.48551436      5.07083536
    N     -2.69096440      2.07024086     -0.18776078      5.08862329
    C     -1.34027238      1.93644209     -0.67106349      3.84056327
    C     -0.97337308      0.82950464     -1.45359181      4.10670311
    C      0.29573944      0.77632473     -2.05089958      4.09273725
    C      0.60925321     -0.44018283     -2.88704047      3.33235894
    O     -0.20716078     -1.33018459     -3.07058531      6.51880798
    O      1.85430048     -0.51566683     -3.44034215      6.48190930
    C      1.19395463      1.83892158     -1.85169396      4.13317063
    C      0.83409905      2.96758359     -1.09103482      3.93836425
    C      1.78868658      4.09284301     -0.90656989      3.96094796
    C      3.17607575      3.86361415     -0.86056607      4.09837789
    C      4.06848534      4.91996522     -0.68458378      4.07081636
    C      3.59465713      6.22692619     -0.55764363      4.07454539
    C      2.22066332      6.47000933     -0.60462209      4.07036445
    C      1.32590690      5.41479797     -0.77376024      4.09567455
    C     -0.45154036      3.01416104     -0.52580379      4.13834406
    H     -4.62444318     -2.46767174      0.16460479      0.91198902
    H     -4.88528064     -0.71972591      0.03125045      0.90996092
    H     -3.83666948     -1.54386917     -1.10835935      0.90217995
    H     -2.66163660     -3.33938048      1.35473846      0.89021477
    H      0.88412691     -3.74641146      4.14307855      0.62261793
    H      0.11311116     -0.58319549      3.14003109      0.89972310
    H     -1.02780649      1.31029493      2.00012285      0.90926263
    H     -1.66668878      0.00908639     -1.62171464      0.88281367
    H      2.40933074      0.24567378     -3.22770892      0.64988624
    H      2.18036206      1.81424062     -2.31473626      0.93206487
    H      3.56000678      2.84870683     -0.94112216      0.92495706
    H      5.13688053      4.72194779     -0.64486925      0.91958401
    H      4.29135132      7.05028741     -0.42241211      0.91870877
    H      1.84432495      7.48568947     -0.51094981      0.91912160
    H      0.25908751      5.62130959     -0.82258520      0.92020863
    H     -0.74996486      3.86833636      0.07742513      0.90697196
