35
This molecule's SMILES string is COc1c(/N=N/c2c(C)cccc2C(=O)O)ccc(F)c1C#N
C -3.62935028981098 1.873718749964225 0.2670947436687512 
O -2.576985419134937 2.3860557489781606 -0.5546797755417902 
C -2.374441363514965 1.5891618469016362 -1.6561080943227413 
C -1.685007927872471 0.36546118979238695 -1.5498434429234558 
N -1.210703754082524 -0.13313420395869757 -0.32047182410961006 
N 0.0 0.0 0.0 
C 0.47949943615183094 -0.49913674266843094 1.2329767701938974 
C 0.5371091285977142 0.3447116989328137 2.365918408159578 
C 0.05680921450192923 1.7723447093114733 2.3338762567315077 
C 0.9883538925562612 -0.1632132827920378 3.598659476579626 
C 1.3502865145296654 -1.5008197318966678 3.733930040411529 
C 1.2511354409552002 -2.3539532955249056 2.641086238232408 
C 0.8195769608411414 -1.8558466337199733 1.400078457710216 
C 0.6896318338941524 -2.8079468297461863 0.2770148736013652 
O -0.30614047531899835 -2.9351118260217812 -0.40907591630355145 
O 1.8218671660240628 -3.5253788265655572 0.08627995758741741 
C -1.5485671441629134 -0.43045010277534357 -2.6975330174897296 
C -2.003558671191776 0.016630957907923793 -3.937355025189161 
C -2.6165492607835104 1.2612054399921255 -4.032797982922808 
F -3.027828939337039 1.679165462737205 -5.238193364730266 
C -2.8079467984259026 2.0570559394895267 -2.905212729980968 
C -3.452791233780939 3.3261413724610254 -3.042691163297188 
N -3.980342045688273 4.354367226916203 -3.1539303565329835 
H -3.9098348498709754 2.659488542697434 0.9748815686123109 
H -3.2931986392380592 1.007196628680141 0.8437816057429681 
H -4.5160843640245725 1.6181631071951832 -0.3240324290495613 
H -0.09946821949798942 2.149405519691691 1.3205044074709158 
H -0.8949028029102333 1.8511252947343781 2.869664532787554 
H 0.7895113253611419 2.4287841585570793 2.815419002546563 
H 1.032318339187326 0.4884426101713497 4.470825906277183 
H 1.6742593497561438 -1.880589543477198 4.700584849643824 
H 1.4745978383728695 -3.411164047833915 2.769861608856654 
H 2.573995609915236 -3.2640115963436913 0.6506118716064889 
H -1.073046769937452 -1.4084005440698966 -2.6174899369953977 
H -1.884457933541764 -0.5991480801705475 -4.824823295413882