35
This molecule's SMILES string is COc1c(C(=O)O)ccc(F)c1/N=N/c1cc(C#N)cc(C(=O)O)c1
C 2.4293646406197653 2.1708015322217498 -1.7176644168726218 
O 3.25949513376519 1.0275962171661104 -1.5286249131849132 
C 2.70622556680194 -0.11454877089781568 -2.0605547007886003 
C 3.271792798187607 -0.6595540099777758 -3.227753028560712 
C 4.316579129826938 0.026380751542024135 -4.014246727423043 
O 5.263360223540923 -0.5182606254777228 -4.551031048798848 
O 4.061320654235682 1.333166818480742 -4.191104991154518 
C 2.887859299796669 -1.9333008586171485 -3.669835244633461 
C 1.95681165112333 -2.6687434895767135 -2.9436898125901747 
C 1.4043272932508999 -2.1253143853711562 -1.7864671516125985 
F 0.5620453364156786 -2.8926382884859274 -1.07762685139676 
C 1.7268326213931018 -0.8322140216890554 -1.3413464495235885 
N 1.2097038377704732 -0.32479390038878464 -0.12783945346309222 
N 0.0 0.0 0.0 
C -0.505900898152612 0.5042910009279781 1.211960319451061 
C -0.8022878157696933 -0.3756646597491033 2.2600178437111724 
C -1.2722321839878332 0.10319838117463417 3.4869983320745996 
C -1.5976228707119353 -0.8143491470176906 4.538962875137994 
N -1.8649211439426128 -1.5541073646240353 5.391666396936626 
C -1.423632280523805 1.4782666566568279 3.682192324350318 
C -1.09104496561299 2.3698882972246023 2.6557721586116307 
C -1.2471988189245846 3.821474750735646 2.9077988223343767 
O -1.6174875716157089 4.322111334816224 3.952246678866431 
O -0.9424812369540146 4.5709009878504405 1.8351065279630707 
C -0.6188999335660362 1.8798020175721697 1.4322417139626555 
H 1.883611618537169 2.1421903541204186 -2.6672300844269934 
H 1.735720971914652 2.274860047776804 -0.8790531238508137 
H 3.074724815867627 3.054421717707721 -1.7275023526805922 
H 4.814317186165557 1.6486397117821077 -4.7337146626376345 
H 3.3390702813680186 -2.364017764105471 -4.562648260148361 
H 1.6762534636546302 -3.6713535295627704 -3.253916743432772 
H -0.6745524170188522 -1.4462513743030438 2.1003907736116547 
H -1.7893391003243126 1.8595307537311436 4.635940596597087 
H -1.0868098405586784 5.492697500804996 2.139646691750211 
H -0.32217903080844656 2.5664896170233757 0.6461872294813565