43
This molecule's SMILES string is Cc1cc(C(=O)O)ccc1/N=N/c1cc(C(=O)O)cc(-c2ccccc2)c1
C -2.9216591081373573 -2.1328538519499984 -0.06832249606576424 
C -2.4140398701438146 -1.821798466593954 1.3125748806754998 
C -2.798624813238854 -2.663731783471373 2.3730333242717006 
C -2.3666307715612542 -2.4162656418648214 3.6823559938466905 
C -2.812290612137558 -3.335224011016704 4.757878553164564 
O -3.545515197522321 -4.29608115309848 4.6182133190445365 
O -2.314113767433667 -3.0077184222476223 5.963345131141337 
C -1.546814711780521 -1.3152298205507713 3.9401706202140847 
C -1.1510360002112563 -0.48318207580892936 2.8900196686598294 
C -1.544954726103139 -0.7436781032975621 1.5672405609261233 
N -1.1294955917523626 0.13310197726817918 0.5421050939959722 
N 0.0 0.0 0.0 
C 0.408897712342257 0.8774172079159228 -1.0218649081296283 
C 0.1542021970644304 0.5707306072705324 -2.3585103112529526 
C 0.5451055004036933 1.4539624243395644 -3.3656383947286916 
C 0.2847179361322064 1.0714851133915482 -4.769635700909395 
O 0.41652650168048183 -0.06754219093740332 -5.179871492439334 
O -0.15088360704005646 2.0986061958139186 -5.527625552233068 
C 1.1994502301908492 2.650025439446723 -3.045163655676225 
C 1.4298757619271387 2.998497189262398 -1.7051400191413455 
C 2.103827466150243 4.258158165945372 -1.355482527393991 
C 3.3645539004660887 4.575541140148127 -1.8881918261232324 
C 4.005119630707523 5.772452205091286 -1.5569615110539956 
C 3.395036797251318 6.672268071695161 -0.6869926436394322 
C 2.14640560420896 6.375931371833025 -0.14670445266281554 
C 1.5069034752592734 5.178333783873859 -0.47772977291881463 
C 1.0077110686989994 2.1049273947296987 -0.7057895951030155 
H -3.984381798578739 -2.3962526235157484 -0.030557096462223043 
H -2.8314888237244946 -1.2780198019234321 -0.7449173025056424 
H -2.366299884337404 -2.9752145752959143 -0.4913647961279235 
H -3.447565902788104 -3.5168201437865556 2.1745765733289586 
H -2.690151890232157 -3.6868911443129413 6.562160561701715 
H -1.2117618864768596 -1.0925925119682194 4.95016243359461 
H -0.5203409347818272 0.3780058747914974 3.0989905729658194 
H -0.3430216773502523 -0.3632026669483859 -2.611286794702432 
H -0.37092541782405314 2.9115646772945185 -5.035022359222216 
H 1.5438090810613248 3.3121650538546143 -3.8378861711979964 
H 3.86837942524877 3.881999369099308 -2.5589786745816205 
H 4.982457300133818 5.998971204080498 -1.9758081104074847 
H 3.8934549275942363 7.603114629772789 -0.4285141864874131 
H 1.668075295348247 7.076985750765887 0.5327146723482462 
H 0.5281591350193859 4.972707574666336 -0.048370310095177935 
H 1.174661562475023 2.3452302365133897 0.3431107425628798